 xtb: 6.7.1 (edcfbbe)
          02242512173D

  3  3  0     0  0            999 V2000
   -1.1437    0.0000    0.0000 O   0  0  0  0  0  0  0  0  0  0  0  0
    1.1437    0.0000    0.0000 O   0  0  0  0  0  0  0  0  0  0  0  0
   -0.0000   -0.0000   -0.0000 C   0  0  0  0  0  0  0  0  0  0  0  0
  1  2  1  0  0  0  0
  1  3  2  0  0  0  0
  2  3  2  0  0  0  0
M  END
